OPT_V10/Two_days_MCY3_MIQCPM1/powerflow_results_t14.txt
Pandapower Network Debug Info
==================================================

BUS:
       vm_pu  va_degree      p_mw    q_mvar
0   0.997922   0.312313 -0.001409  0.000965
1   0.996618   0.508326 -0.001061  0.001844
2   0.994979   0.669264 -0.000375  0.002787
3   0.996097   0.457357 -0.000137  0.003662
4   0.999906   0.001663  0.008765  0.011494
5   0.999894   0.001758  0.006402  0.007977
6   0.999884   0.001810  0.011925  0.011138
7   0.999945   0.001243  0.000000  0.000000
8   0.999945   0.001248  0.000000  0.000000
9   1.000000   0.000000 -0.024209 -0.044929
10  1.000000   0.000006  0.000000  0.000000
--------------------------------------------------

LINE:
   p_from_mw  q_from_mvar   p_to_mw  q_to_mvar         pl_mw       ql_mvar  i_from_ka   i_to_ka      i_ka  vm_from_pu  va_from_degree  vm_to_pu  va_to_degree  loading_percent
0   0.024199     0.040929 -0.024197  -0.040927  2.211319e-06  1.724202e-06   0.001830  0.001830  0.001830    1.000000        0.000006  0.999945      0.001243         0.795696
1   0.027094     0.030611 -0.027093  -0.030610  1.292383e-06  1.007693e-06   0.001574  0.001574  0.001574    0.999945        0.001243  0.999906      0.001663         0.684143
2  -0.002907     0.009316  0.002952  -0.009281  4.455116e-05  3.473728e-05   0.014087  0.014087  0.014087    0.999945        0.001248  0.997922      0.312313         6.124742
3  -0.018328    -0.019116  0.018328   0.019116  2.425782e-07  1.891422e-07   0.001019  0.001019  0.001019    0.999894        0.001758  0.999906      0.001663         0.443220
4  -0.011925    -0.011138  0.011925   0.011138  1.302549e-07  1.015619e-07   0.000628  0.000628  0.000628    0.999884        0.001810  0.999894      0.001758         0.273107
5   0.001429    -0.004637 -0.001415   0.004648  1.402299e-05  1.093395e-05   0.007027  0.007027  0.007027    0.996618        0.508326  0.997922      0.312313         3.055263
6   0.000137    -0.003662 -0.000128   0.003669  9.035285e-06  7.044961e-06   0.005310  0.005310  0.005310    0.996097        0.457357  0.997922      0.312313         2.308537
7   0.000375    -0.002787 -0.000368   0.002792  7.224934e-06  5.633400e-06   0.004079  0.004079  0.004079    0.994979        0.669264  0.996618      0.508326         1.773543
--------------------------------------------------

TRAFO:
    p_hv_mw  q_hv_mvar   p_lv_mw  q_lv_mvar    pl_mw  ql_mvar   i_hv_ka   i_lv_ka  vm_hv_pu  va_hv_degree  vm_lv_pu  va_lv_degree  loading_percent
0 -0.002897   0.010316  0.002907  -0.009316  0.00001    0.001  0.000412  0.014087  0.999945      0.001243  0.999945      0.001248         0.107156
1  0.024209   0.044929 -0.024199  -0.040929  0.00001    0.004  0.000421  0.001830  1.000000      0.000000  1.000000      0.000006         0.127590
--------------------------------------------------
